test/test_perturbation_outputs/pert_min_cost/pglib_opf_case10000_tamu.m
%% MATPOWER Case Format : Version 2
function mpc = pglib_opf_case10000_tamu
mpc.version = '2';

%%-----  Power Flow Data  -----%%
%% system MVA base
mpc.baseMVA = 100.0;
%% bus data
%    bus_i    type    Pd    Qd    Gs    Bs    area    Vm    Va    baseKV    zone    Vmax    Vmin
mpc.bus = [
	10001	1	9.64	2.54	0.0	0.0	1	1.0	0.0	138.0	1	1.1	0.9				
	10002	1	15.98	6.04	0.0	0.0	1	1.0	0.0	138.0	1	1.1	0.9				
	10003	1	14.39	1.09	0.0	0.0	1	1.0	0.0	138.0	1	1.1	0.9				
	10004	1	0.0	0.0	0.0	0.0	1	1.0	0.0	138.0	1	1.1	0.9				
	10005	1	10.45	2.75	0.0	0.0	1	1.0	0.0	138.0	1	1.1	0.9				
	10006	1	13.44	1.28	0.0	0.0	1	1.0	0.0	138.0	1	1.1	0.9				
	10007	1	0.0	0.0	0.0	0.0	1	1.0	0.0	138.0	1	1.1	0.9				
	10008	1	0.0	0.0	0.0	0.0	1	1.0	0.0	138.0	1	1.1	0.9				
	10009	1	16.82	2.59	0.0	0.0	1	1.0	0.0	138.0	1	1.1	0.9				
	10010	1	33.49	15.14	0.0	0.0	1	1.0	0.0	138.0	1	1.1	0.9				
	10011	1	32.02	8.17	0.0	0.0	1	1.0	0.0	138.0	1	1.1	0.9				
	10012	1	0.0	0.0	0.0	0.0	1	1.0	0.0	345.0	1	1.1	0.9				
	10013	1	57.79	30.06	0.0	0.0	1	1.0	0.0	138.0	1	1.1	0.9				
	10014	1	0.0	0.0	0.0	0.0	1	1.0	0.0	138.0	1	1.1	0.9				
	10015	1	25.009999999999998	11.8	0.0	0.0	1	1.0	0.0	138.0	1	1.1	0.9				
	10016	1	0.0	0.0	0.0	0.0	1	1.0	0.0	138.0	1	1.1	0.9				
	10017	1	25.89	7.16	0.0	0.0	1	1.0	0.0	138.0	1	1.1	0.9				
	10018	1	24.47	6.19	0.0	0.0	1	1.0	0.0	138.0	1	1.1	0.9				
	10019	1	0.0	0.0	0.0	0.0	1	1.0	0.0	345.0	1	1.1	0.9				
	10020	1	53.349999999999994	4.54	0.0	32.0	1	1.0	0.0	138.0	1	1.1	0.9				
	10021	1	8.99	2.13	0.0	0.0	1	1.0	0.0	138.0	1	1.1	0.9				
	10022	1	48.19	15.920000000000002	0.0	0.0	1	1.0	0.0	138.0	1	1.1	0.9				
	10023	1	0.0	0.0	0.0	0.0	1	1.0	0.0	345.0	1	1.1	0.9				
	10024	1	43.96	8.97	0.0	0.0	1	1.0	0.0	138.0	1	1.1	0.9				
	10025	1	30.89	12.76	0.0	0.0	1	1.0	0.0	138.0	1	1.1	0.9				
	10026	1	18.65	4.97	0.0	0.0	1	1.0	0.0	138.0	1	1.1	0.9				
	10027	1	0.0	0.0	0.0	0.0	1	1.0	0.0	138.0	1	1.1	0.9				
	10028	1	32.23	12.72	0.0	0.0	1	1.0	0.0	138.0	1	1.1	0.9				
	10029	1	32.23	1.8500000000000003	0.0	0.0	1	1.0	0.0	138.0	1	1.1	0.9				
	10030	1	0.0	0.0	0.0	0.0	1	1.0	0.0	138.0	1	1.1	0.9				
	10031	1	39.8	7.180000000000001	0.0	0.0	1	1.0	0.0	138.0	1	1.1	0.9				
	10032	1	41.5	5.68	0.0	0.0	1	1.0	0.0	138.0	1	1.1	0.9				
	10033	1	59.050000000000004	6.959999999999999	0.0	0.0	1	1.0	0.0	138.0	1	1.1	0.9				
	10034	1	0.0	0.0	0.0	0.0	1	1.0	0.0	138.0	1	1.1	0.9				
	10035	1	59.050000000000004	42.65	0.0	0.0	1	1.0	0.0	138.0	1	1.1	0.9				
	10036	1	0.0	0.0	0.0	0.0	1	1.0	0.0	138.0	1	1.1	0.9				
	10037	1	58.29	11.32	0.0	0.0	1	1.0	0.0	138.0	1	1.1	0.9				
	10038	1	36.59	13.170000000000002	0.0	0.0	1	1.0	0.0	138.0	1	1.1	0.9				
	10039	1	0.0	0.0	0.0	0.0	1	1.0	0.0	138.0	1	1.1	0.9				
	10040	1	43.57	13.69	0.0	0.0	1	1.0	0.0	138.0	1	1.1	0.9				
	10041	1	20.08	9.93	0.0	0.0	1	1.0	0.0	138.0	1	1.1	0.9				
	10042	1	59.25	11.36	0.0	0.0	1	1.0	0.0	138.0	1	1.1	0.9				
	10043	1	0.0	0.0	0.0	0.0	1	1.0	0.0	138.0	1	1.1	0.9				
	10044	1	37.54	1.7399999999999998	0.0	0.0	1	1.0	0.0	138.0	1	1.1	0.9				
	10045	1	25.35	12.91	0.0	0.0	1	1.0	0.0	138.0	1	1.1	0.9				
	10046	1	0.0	0.0	0.0	0.0	1	1.0	0.0	138.0	1	1.1	0.9				
	10047	1	45.76	5.94	0.0	0.0	1	1.0	0.0	138.0	1	1.1	0.9				
	10048	1	45.76	10.24	0.0	0.0	1	1.0	0.0	138.0	1	1.1	0.9				
	10049	1	0.0	0.0	0.0	0.0	1	1.0	0.0	138.0	1	1.1	0.9				
	10050	1	0.0	0.0	0.0	0.0	1	1.0	0.0	138.0	1	1.1	0.9				
	10051	1	0.0	0.0	0.0	0.0	1	1.0	0.0	138.0	1	1.1	0.9				
	10052	1	17.51	1.94	0.0	0.0	1	1.0	0.0	138.0	1	1.1	0.9				
	10053	1	43.68	4.56	0.0	0.0	1	1.0	0.0	138.0	1	1.1	0.9				
	10054	1	43.32	16.13	0.0	0.0	1	1.0	0.0	138.0	1	1.1	0.9				
	10055	1	17.57	5.16	0.0	0.0	1	1.0	0.0	138.0	1	1.1	0.9				
	10056	1	0.0	0.0	0.0	0.0	1	1.0	0.0	138.0	1	1.1	0.9				
	10057	1	0.0	0.0	0.0	0.0	1	1.0	0.0	345.0	1	1.1	0.9				
	10058	1	43.93	8.14	0.0	0.0	1	1.0	0.0	138.0	1	1.1	0.9				
	10059	1	0.0	0.0	0.0	0.0	1	1.0	0.0	345.0	1	1.1	0.9				
	10060	1	43.93	27.62	0.0	0.0	1	1.0	0.0	138.0	1	1.1	0.9				
	10061	1	51.07000000000001	18.71	0.0	22.0	1	1.0	0.0	138.0	1	1.1	0.9				
	10062	1	0.0	0.0	0.0	0.0	1	1.0	0.0	138.0	1	1.1	0.9				
	10063	1	0.0	0.0	0.0	0.0	1	1.0	0.0	138.0	1	1.1	0.9				
	10064	1	36.24	9.3	0.0	0.0	1	1.0	0.0	138.0	1	1.1	0.9				
	10065	1	46.26	6.819999999999999	0.0	0.0	1	1.0	0.0	138.0	1	1.1	0.9				
	10066	1	0.0	0.0	0.0	0.0	1	1.0	0.0	13.8	1	1.1	0.9				
	10067	1	0.0	0.0	0.0	0.0	1	1.0	0.0	13.8	1	1.1	0.9				
	10068	1	0.0	0.0	0.0	0.0	1	1.0	0.0	1.0	1	1.1	0.9				
	10069	1	58.86	14.48	0.0	0.0	1	1.0	0.0	138.0	1	1.1	0.9				
	10070	1	11.07	0.16	0.0	0.0	1	1.0	0.0	138.0	1	1.1	0.9				
	10071	1	38.37	10.34	0.0	0.0	1	1.0	0.0	138.0	1	1.1	0.9				
	10072	1	0.0	0.0	0.0	0.0	1	1.0	0.0	138.0	1	1.1	0.9				
	10073	1	38.37	20.18	0.0	0.0	1	1.0	0.0	138.0	1	1.1	0.9				
	10074	1	0.0	0.0	0.0	0.0	1	1.0	0.0	138.0	1	1.1	0.9				
	10075	1	14.719999999999999	4.64	0.0	0.0	1	1.0	0.0	138.0	1	1.1	0.9				
	10076	1	27.96	2.98	0.0	0.0	1	1.0	0.0	138.0	1	1.1	0.9				
	10077	1	28.46	7.93	0.0	0.0	1	1.0	0.0	138.0	1	1.1	0.9				
	10078	1	0.0	0.0	0.0	0.0	1	1.0	0.0	345.0	1	1.1	0.9				
	10079	1	55.86	12.509999999999998	0.0	0.0	1	1.0	0.0	138.0	1	1.1	0.9				
	10080	1	0.0	0.0	0.0	0.0	1	1.0	0.0	24.0	1	1.1	0.9				
	10081	1	0.0	0.0	0.0	0.0	1	1.0	0.0	1.0	1	1.1	0.9				
	10082	1	0.0	0.0	0.0	0.0	1	1.0	0.0	138.0	1	1.1	0.9				
	10083	1	22.32	8.77	0.0	0.0	1	1.0	0.0	138.0	1	1.1	0.9				
	10084	1	0.0	0.0	0.0	0.0	1	1.0	0.0	138.0	1	1.1	0.9				
	10085	1	40.86	5.87	0.0	0.0	1	1.0	0.0	138.0	1	1.1	0.9				
	10086	1	0.0	0.0	0.0	0.0	1	1.0	0.0	138.0	1	1.1	0.9				
	10087	1	10.87	8.58	0.0	0.0	1	1.0	0.0	138.0	1	1.1	0.9				
	10088	1	0.0	0.0	0.0	0.0	1	1.0	0.0	138.0	1	1.1	0.9				
	10089	1	33.23	4.19	0.0	0.0	1	1.0	0.0	138.0	1	1.1	0.9				
	10090	1	33.23	6.75	0.0	0.0	1	1.0	0.0	138.0	1	1.1	0.9				
	10091	1	37.67	4.7	0.0	0.0	1	1.0	0.0	138.0	1	1.1	0.9				
	10092	1	31.46	1.7000000000000002	0.0	0.0	1	1.0	0.0	138.0	1	1.1	0.9				
	10093	1	31.46	11.16	0.0	0.0	1	1.0	0.0	138.0	1	1.1	0.9				
	10094	1	0.0	0.0	0.0	0.0	1	1.0	0.0	138.0	1	1.1	0.9				
	10095	1	0.0	0.0	0.0	0.0	1	1.0	0.0	138.0	1	1.1	0.9				
	10096	1	18.02	4.43	0.0	0.0	1	1.0	0.0	138.0	1	1.1	0.9				
	10097	1	31.019999999999996	5.28	0.0	0.0	1	1.0	0.0	138.0	1	1.1	0.9				
	10098	1	19.84	5.6	0.0	0.0	1	1.0	0.0	138.0	1	1.1	0.9				
	10099	1	0.0	0.0	0.0	0.0	1	1.0	0.0	138.0	1	1.1	0.9				
	10100	1	0.0	0.0	0.0	0.0	1	1.0	0.0	138.0	1	1.1	0.9				
	10101	1	0.0	0.0	0.0	0.0	1	1.0	0.0	138.0	1	1.1	0.9				
	10102	1	33.88	8.27	0.0	0.0	1	1.0	0.0	138.0	1	1.1	0.9				
	10103	1	0.0	0.0	0.0	0.0	1	1.0	0.0	138.0	1	1.1	0.9				
	10104	1	57.74	17.1	0.0	0.0	1	1.0	0.0	138.0	1	1.1	0.9				
	10105	1	0.0	0.0	0.0	0.0	1	1.0	0.0	138.0	1	1.1	0.9				
	10106	1	51.34000000000001	13.639999999999999	0.0	0.0	1	1.0	0.0	138.0	1	1.1	0.9				
	10107	1	26.950000000000003	1.82	0.0	0.0	1	1.0	0.0	138.0	1	1.1	0.9				
	10108	1	0.0	0.0	0.0	0.0	1	1.0	0.0	138.0	1	1.1	0.9				
	10109	1	0.0	0.0	0.0	0.0	1	1.0	0.0	138.0	1	1.1	0.9				
	10110	1	12.48	4.31	0.0	0.0	1	1.0	0.0	138.0	1	1.1	0.9				
	10111	1	0.0	0.0	0.0	0.0	1	1.0	0.0	138.0	1	1.1	0.9				
	10112	1	11.2	2.7	0.0	0.0	1	1.0	0.0	138.0	1	1.1	0.9				
	10113	1	0.0	0.0	0.0	0.0	1	1.0	0.0	138.0	1	1.1	0.9				
	10114	1	31.06	13.530000000000001	0.0	0.0	1	1.0	0.0	138.0	1	1.1	0.9				
	10115	1	31.06	11.74	0.0	0.0	1	1.0	0.0	138.0	1	1.1	0.9				
	10116	1	47.94	5.39	0.0	0.0	1	1.0	0.0	138.0	1	1.1	0.9				
	10117	1	0.0	0.0	0.0	0.0	1	1.0	0.0	345.0	1	1.1	0.9				
	10118	1	45.39	21.63	0.0	0.0	1	1.0	0.0	138.0	1	1.1	0.9				
	10119	1	0.0	0.0	0.0	0.0	1	1.0	0.0	13.8	1	1.1	0.9				
	10120	1	0.0	0.0	0.0	0.0	1	1.0	0.0	1.0	1	1.1	0.9				
	10121	1	0.0	0.0	0.0	0.0	1	1.0	0.0	138.0	1	1.1	0.9				
	10122	1	35.43	19.18	0.0	0.0	1	1.0	0.0	138.0	1	1.1	0.9				
	10123	1	0.0	0.0	0.0	0.0	1	1.0	0.0	138.0	1	1.1	0.9				
	10124	1	0.0	0.0	0.0	0.0	1	1.0	0.0	138.0	1	1.1	0.9				
	10125	1	35.43	7.06	0.0	0.0	1	1.0	0.0	138.0	1	1.1	0.9				
	10126	1	0.0	0.0	0.0	0.0	1	1.0	0.0	138.0	1	1.1	0.9				
	10127	1	0.0	0.0	0.0	0.0	1	1.0	0.0	345.0	1	1.1	0.9				
	10128	1	44.89	16.27	0.0	0.0	1	1.0	0.0	138.0	1	1.1	0.9				
	10129	1	50.09	14.75	0.0	0.0	1	1.0	0.0	138.0	1	1.1	0.9				
	10130	1	50.09	14.37	0.0	0.0	1	1.0	0.0	138.0	1	1.1	0.9				
	10131	1	0.0	0.0	0.0	0.0	1	1.0	0.0	138.0	1	1.1	0.9				
	10132	1	41.72	12.38	0.0	0.0	1	1.0	0.0	138.0	1	1.1	0.9				
	10133	1	0.0	0.0	0.0	0.0	1	1.0	0.0	138.0	1	1.1	0.9				
	10134	1	71.03	8.23	0.0	0.0	1	1.0	0.0	138.0	1	1.1	0.9				
	10135	1	61.01	13.930000000000001	0.0	0.0	1	1.0	0.0	138.0	1	1.1	0.9				
	10136	1	0.0	0.0	0.0	0.0	1	1.0	0.0	138.0	1	1.1	0.9				
	10137	1	20.07	5.15	0.0	0.0	1	1.0	0.0	138.0	1	1.1	0.9				
	10138	1	38.05	7.429999999999999	0.0	0.0	1	1.0	0.0	138.0	1	1.1	0.9				
	10139	1	35.0	8.78	0.0	0.0	1	1.0	0.0	138.0	1	1.1	0.9				
	10140	1	16.07	5.79	0.0	0.0	1	1.0	0.0	138.0	1	1.1	0.9				
	10141	1	41.11	16.66	0.0	0.0	1	1.0	0.0	138.0	1	1.1	0.9				
	10142	1	41.11	1.31	0.0	0.0	1	1.0	0.0	138.0	1	1.1	0.9				
	10143	1	0.0	0.0	0.0	0.0	1	1.0	0.0	138.0	1	1.1	0.9				
	10144	1	0.0	0.0	0.0	0.0	1	1.0	0.0	138.0	1	1.1	0.9				
	10145	1	37.97	9.24	0.0	0.0	1	1.0	0.0	138.0	1	1.1	0.9				
	10146	1	37.97	9.3	0.0	0.0	1	1.0	0.0	138.0	1	1.1	0.9				
	10147	1	0.0	0.0	0.0	0.0	1	1.0	0.0	138.0	1	1.1	0.9				
	10148	1	52.25	24.72	0.0	0.0	1	1.0	0.0	138.0	1	1.1	0.9				
	10149	1	0.0	0.0	0.0	0.0	1	1.0	0.0	138.0	1	1.1	0.9				
	10150	1	7.99	4.67	0.0	0.0	1	1.0	0.0	18.0	1	1.1	0.9				
	10151	1	11.73	1.24	0.0	0.0	1	1.0	0.0	18.0	1	1.1	0.9				
	10152	1	0.0	0.0	0.0	0.0	1	1.0	0.0	1.0	1	1.1	0.9				
	10153	1	35.35	3.8900000000000006	0.0	0.0	1	1.0	0.0	138.0	1	1.1	0.9				
	10154	1	33.06	13.11	0.0	0.0	1	1.0	0.0	138.0	1	1.1	0.9				
	10155	1	0.0	0.0	0.0	0.0	1	1.0	0.0	138.0	1	1.1	0.9				
	10156	1	33.52	4.02	0.0	0.0	1	1.0	0.0	138.0	1	1.1	0.9				
	10157	1	32.33	10.35	0.0	80.0	1	1.0	0.0	138.0	1	1.1	0.9				
	10158	1	0.0	0.0	0.0	0.0	1	1.0	0.0	138.0	1	1.1	0.9				
	10159	1	15.22	4.81	0.0	0.0	1	1.0	0.0	138.0	1	1.1	0.9				
	10160	1	55.26	20.75	0.0	0.0	1	1.0	0.0	138.0	1	1.1	0.9				
	10161	1	0.0	0.0	0.0	0.0	1	1.0	0.0	138.0	1	1.1	0.9				
	10162	1	25.6	5.53	0.0	0.0	1	1.0	0.0	138.0	1	1.1	0.9				
	10163	1	0.0	0.0	0.0	0.0	1	1.0	0.0	138.0	1	1.1	0.9				
	10164	1	26.640000000000004	6.54	0.0	0.0	1	1.0	0.0	138.0	1	1.1	0.9				
	10165	1	0.0	0.0	0.0	0.0	1	1.0	0.0	138.0	1	1.1	0.9				
	10166	1	47.72	5.4	0.0	0.0	1	1.0	0.0	138.0	1	1.1	0.9				
	10167	1	32.36	10.77	0.0	0.0	1	1.0	0.0	138.0	1	1.1	0.9				
	10168	1	32.36	10.63	0.0	0.0	1	1.0	0.0	138.0	1	1.1	0.9				
	10169	1	0.0	0.0	0.0	0.0	1	1.0	0.0	138.0	1	1.1	0.9				
	10170	1	14.510000000000002	0.9199999999999999	0.0	0.0	1	1.0	0.0	138.0	1	1.1	0.9				
	10171	1	51.85999999999999	8.23	0.0	0.0	1	1.0	0.0	138.0	1	1.1	0.9				
	10172	1	0.0	0.0	0.0	0.0	1	1.0	0.0	138.0	1	1.1	0.9				
	10173	1	0.0	0.0	0.0	0.0	1	1.0	0.0	138.0	1	1.1	0.9				
	10174	1	41.08	5.55	0.0	0.0	1	1.0	0.0	138.0	1	1.1	0.9				
	10175	1	41.08	12.710000000000003	0.0	0.0	1	1.0	0.0	138.0	1	1.1	0.9				
	10176	1	0.0	0.0	0.0	0.0	1	1.0	0.0	138.0	1	1.1	0.9				
	10177	1	37.0	12.28	0.0	0.0	1	1.0	0.0	138.0	1	1.1	0.9				
	10178	1	37.0	6.329999999999999	0.0	0.0	1	1.0	0.0	138.0	1	1.1	0.9				
	10179	1	55.40999999999999	4.59	0.0	0.0	1	1.0	0.0	138.0	1	1.1	0.9				
	10180	1	1.46	0.56	0.0	0.0	1	1.0	0.0	138.0	1	1.1	0.9				
	10181	1	0.0	0.0	0.0	0.0	1	1.0	0.0	138.0	1	1.1	0.9				
	10182	1	55.40999999999999	4.8	0.0	0.0	1	1.0	0.0	138.0	1	1.1	0.9				
	10183	1	48.59	5.25	0.0	0.0	1	1.0	0.0	138.0	1	1.1	0.9				
	10184	1	0.0	0.0	0.0	0.0	1	1.0	0.0	138.0	1	1.1	0.9				
	10185	1	68.06	27.250000000000004	0.0	0.0	1	1.0	0.0	138.0	1	1.1	0.9				
	10186	1	0.0	0.0	0.0	0.0	1	1.0	0.0	138.0	1	1.1	0.9				
	10187	1	37.59	7.22	0.0	0.0	1	1.0	0.0	138.0	1	1.1	0.9				
	10188	1	51.739999999999995	17.55	0.0	0.0	1	1.0	0.0	138.0	1	1.1	0.9				
	10189	1	0.0	0.0	0.0	0.0	1	1.0	0.0	138.0	1	1.1	0.9				
	10190	1	0.0	0.0	0.0	0.0	1	1.0	0.0	138.0	1	1.1	0.9				
	10191	1	63.470000000000006	6.05	0.0	0.0	1	1.0	0.0	138.0	1	1.1	0.9				
	10192	1	0.0	0.0	0.0	0.0	1	1.0	0.0	345.0	1	1.1	0.9				
	10193	1	63.470000000000006	25.629999999999995	0.0	0.0	1	1.0	0.0	138.0	1	1.1	0.9				
	10194	1	0.0	0.0	0.0	0.0	1	1.0	0.0	24.0	1	1.1	0.9				
	10195	1	0.0	0.0	0.0	0.0	1	1.0	0.0	1.0	1	1.1	0.9				
	10196	1	0.0	0.0	0.0	0.0	1	1.0	0.0	345.0	1	1.1	0.9				
	10197	1	0.0	0.0	0.0	0.0	1	1.0	0.0	138.0	1	1.1	0.9				
	10198	1	55.169999999999995	29.09	0.0	0.0	1	1.0	0.0	345.0	1	1.1	0.9				
	10199	1	25.509999999999998	11.27	0.0	0.0	1	1.0	0.0	138.0	1	1.1	0.9				
	10200	1	57.98	19.56	0.0	0.0	1	1.0	0.0	138.0	1	1.1	0.9				
...
];

%% generator data
%    bus    Pg    Qg    Qmax    Qmin    Vg    mBase    status    Pmax    Pmin    Pc1    Pc2    Qc1min    Qc1max    Qc2min    Qc2max    ramp_agc    ramp_10    ramp_30    ramp_q    apf
mpc.gen = [
	10683	0.0	0.0	61.15999999999999	-7.8	1.0	207.74	0	159.27	52.01	0.0	0.0	0.0	0.0	0.0	0.0	0.0	0.0	0.0	0.0	159.27				
	10684	85.29	26.68	61.15999999999999	-7.8	1.0	201.13	1	85.29	85.29	0.0	0.0	0.0	0.0	0.0	0.0	0.0	0.0	0.0	0.0	159.2667				
	10685	138.65	26.68	61.15999999999999	-7.8	1.0	217.36	1	138.65	138.65	0.0	0.0	0.0	0.0	0.0	0.0	0.0	0.0	0.0	0.0	159.2667				
	10686	0.0	0.0	61.15999999999999	-7.8	1.0	214.15	0	159.27	56.04	0.0	0.0	0.0	0.0	0.0	0.0	0.0	0.0	0.0	0.0	159.2667				
	10687	120.63	26.68	61.15999999999999	-7.8	1.0	188.08	1	120.63	120.63	0.0	0.0	0.0	0.0	0.0	0.0	0.0	0.0	0.0	0.0	159.2667				
	10688	109.93000000000002	26.68	61.15999999999999	-7.8	1.0	201.28	1	109.93000000000002	109.93000000000002	0.0	0.0	0.0	0.0	0.0	0.0	0.0	0.0	0.0	0.0	159.2667				
	10689	9.02	2.16	4.95	-0.63	1.0	12.9	1	9.02	9.02	0.0	0.0	0.0	0.0	0.0	0.0	0.0	0.0	0.0	0.0	12.9				
	10691	59.72	3.415	21.07	-14.24	1.0	98.92	1	59.72	59.72	0.0	0.0	0.0	0.0	0.0	0.0	0.0	0.0	0.0	0.0	98.9				
	10694	23.02	5.865	13.44	-1.71	1.0	35.08	1	23.02	23.02	0.0	0.0	0.0	0.0	0.0	0.0	0.0	0.0	0.0	0.0	35.0				
	10695	25.55	5.865	13.44	-1.71	1.0	41.36	1	25.55	25.55	0.0	0.0	0.0	0.0	0.0	0.0	0.0	0.0	0.0	0.0	35.0				
	10699	79.42	3.4750000000000005	21.45	-14.499999999999998	1.0	120.64	1	79.42	79.42	0.0	0.0	0.0	0.0	0.0	0.0	0.0	0.0	0.0	0.0	100.7				
	10703	136.3	4.7	29.03	-19.63	1.0	174.64	1	136.3	136.3	0.0	0.0	0.0	0.0	0.0	0.0	0.0	0.0	0.0	0.0	136.3				
	10710	171.16	36.28	83.17	-10.61	1.0	238.48	1	171.16	171.16	0.0	0.0	0.0	0.0	0.0	0.0	0.0	0.0	0.0	0.0	216.6				
	10711	189.67	36.28	83.17	-10.61	1.0	219.83	1	189.67	189.67	0.0	0.0	0.0	0.0	0.0	0.0	0.0	0.0	0.0	0.0	216.6				
	10712	135.95	36.28	83.17	-10.61	1.0	219.92	1	135.95	135.95	0.0	0.0	0.0	0.0	0.0	0.0	0.0	0.0	0.0	0.0	216.6				
	10713	189.37	36.28	83.17	-10.61	1.0	259.93	1	189.37	189.37	0.0	0.0	0.0	0.0	0.0	0.0	0.0	0.0	0.0	0.0	216.6				
	10714	0.0	0.0	83.17	-10.61	1.0	235.85	0	216.6	42.73	0.0	0.0	0.0	0.0	0.0	0.0	0.0	0.0	0.0	0.0	216.6				
	10715	172.43	36.28	83.17	-10.61	1.0	279.75	1	172.43	172.43	0.0	0.0	0.0	0.0	0.0	0.0	0.0	0.0	0.0	0.0	216.6				
	10722	0.0	0.0	40.28	-5.14	1.0	131.4	0	104.90000000000002	32.78	0.0	0.0	0.0	0.0	0.0	0.0	0.0	0.0	0.0	0.0	104.9				
	10723	82.25	17.57	40.28	-5.14	1.0	152.84	1	82.25	82.25	0.0	0.0	0.0	0.0	0.0	0.0	0.0	0.0	0.0	0.0	104.9				
	10724	104.90000000000002	17.57	40.28	-5.14	1.0	115.76	1	104.90000000000002	104.90000000000002	0.0	0.0	0.0	0.0	0.0	0.0	0.0	0.0	0.0	0.0	104.9				
	10725	71.29	17.57	40.28	-5.14	1.0	116.27	1	71.29	71.29	0.0	0.0	0.0	0.0	0.0	0.0	0.0	0.0	0.0	0.0	104.9				
	10726	71.08	17.57	40.28	-5.14	1.0	106.56	1	71.08	71.08	0.0	0.0	0.0	0.0	0.0	0.0	0.0	0.0	0.0	0.0	104.9				
	10727	0.0	0.0	40.28	-5.14	1.0	122.59	0	104.90000000000002	28.249999999999996	0.0	0.0	0.0	0.0	0.0	0.0	0.0	0.0	0.0	0.0	104.9				
	10728	23.81	4.68	10.73	-1.37	1.0	32.27	1	23.81	23.81	0.0	0.0	0.0	0.0	0.0	0.0	0.0	0.0	0.0	0.0	27.95				
	10728	0.0	0.0	10.73	-1.37	1.0	35.8	0	27.949999999999996	6.98	0.0	0.0	0.0	0.0	0.0	0.0	0.0	0.0	0.0	0.0	27.95				
	10729	0.0	0.0	10.73	-1.37	1.0	27.95	0	27.949999999999996	6.03	0.0	0.0	0.0	0.0	0.0	0.0	0.0	0.0	0.0	0.0	27.95				
	10729	20.46	4.68	10.73	-1.37	1.0	32.33	1	20.46	20.46	0.0	0.0	0.0	0.0	0.0	0.0	0.0	0.0	0.0	0.0	27.95				
	10731	0.0	0.0	6.5	-0.83	1.0	18.62	0	16.92	5.64	0.0	0.0	0.0	0.0	0.0	0.0	0.0	0.0	0.0	0.0	16.92				
	10731	0.0	0.0	6.5	-0.83	1.0	21.25	0	16.92	6.860000000000001	0.0	0.0	0.0	0.0	0.0	0.0	0.0	0.0	0.0	0.0	16.92				
	10731	0.0	0.0	6.5	-0.83	1.0	16.92	0	16.92	3.04	0.0	0.0	0.0	0.0	0.0	0.0	0.0	0.0	0.0	0.0	16.92				
	10731	9.83	2.835	6.5	-0.83	1.0	19.89	1	9.83	9.83	0.0	0.0	0.0	0.0	0.0	0.0	0.0	0.0	0.0	0.0	16.92				
	10731	0.0	0.0	6.5	-0.83	1.0	20.51	0	16.92	4.16	0.0	0.0	0.0	0.0	0.0	0.0	0.0	0.0	0.0	0.0	16.92				
	10737	115.84999999999998	31.670000000000005	81.01	-17.67	1.0	193.29	1	159.15	72.55	0.0	0.0	0.0	0.0	0.0	0.0	0.0	0.0	0.0	0.0	159.15				
	10738	108.845	31.670000000000005	81.01	-17.67	1.0	195.43	1	159.15	58.540000000000006	0.0	0.0	0.0	0.0	0.0	0.0	0.0	0.0	0.0	0.0	159.15				
	10742	80.0	13.4	30.72	-3.92	1.0	96.14	1	80.0	80.0	0.0	0.0	0.0	0.0	0.0	0.0	0.0	0.0	0.0	0.0	80.0				
	10743	0.0	0.0	30.72	-3.92	1.0	93.18	0	80.0	31.97	0.0	0.0	0.0	0.0	0.0	0.0	0.0	0.0	0.0	0.0	80.0				
	10744	64.23	13.4	30.72	-3.92	1.0	106.35	1	64.23	64.23	0.0	0.0	0.0	0.0	0.0	0.0	0.0	0.0	0.0	0.0	80.0				
	10746	66.35	3.105	19.17	-12.960000000000003	1.0	98.26	1	66.35	66.35	0.0	0.0	0.0	0.0	0.0	0.0	0.0	0.0	0.0	0.0	90.0				
	10750	409.37	68.57	157.2	-20.06	1.0	498.65	1	409.37	409.37	0.0	0.0	0.0	0.0	0.0	0.0	0.0	0.0	0.0	0.0	409.37				
	10751	0.0	0.0	157.2	-20.06	1.0	454.46	0	409.37	47.4	0.0	0.0	0.0	0.0	0.0	0.0	0.0	0.0	0.0	0.0	409.3667				
	10752	293.05	68.57	157.2	-20.06	1.0	417.45	1	293.05	293.05	0.0	0.0	0.0	0.0	0.0	0.0	0.0	0.0	0.0	0.0	409.3667				
	10753	0.0	0.0	157.2	-20.06	1.0	459.34	0	409.37	49.62	0.0	0.0	0.0	0.0	0.0	0.0	0.0	0.0	0.0	0.0	409.3667				
	10754	323.1	68.57	157.2	-20.06	1.0	487.04	1	323.1	323.1	0.0	0.0	0.0	0.0	0.0	0.0	0.0	0.0	0.0	0.0	409.3667				
	10755	333.93	68.57	157.2	-20.06	1.0	548.59	1	333.93	333.93	0.0	0.0	0.0	0.0	0.0	0.0	0.0	0.0	0.0	0.0	409.37				
	10757	40.5	6.785000000000001	15.55	-1.9799999999999998	1.0	45.68	1	40.5	40.5	0.0	0.0	0.0	0.0	0.0	0.0	0.0	0.0	0.0	0.0	40.5				
	10757	40.5	6.785000000000001	15.55	-1.9799999999999998	1.0	47.33	1	40.5	40.5	0.0	0.0	0.0	0.0	0.0	0.0	0.0	0.0	0.0	0.0	40.5				
	10757	28.939999999999998	6.785000000000001	15.55	-1.9799999999999998	1.0	57.72	1	28.939999999999998	28.939999999999998	0.0	0.0	0.0	0.0	0.0	0.0	0.0	0.0	0.0	0.0	40.5				
	10757	0.0	0.0	15.55	-1.9799999999999998	1.0	56.8	0	40.5	9.58	0.0	0.0	0.0	0.0	0.0	0.0	0.0	0.0	0.0	0.0	40.5				
	10758	0.0	0.0	21.35	-2.72	1.0	64.74	0	55.60000000000001	19.42	0.0	0.0	0.0	0.0	0.0	0.0	0.0	0.0	0.0	0.0	55.6				
	10758	55.60000000000001	9.315	21.35	-2.72	1.0	63.99	1	55.60000000000001	55.60000000000001	0.0	0.0	0.0	0.0	0.0	0.0	0.0	0.0	0.0	0.0	55.6				
	10760	0.0	0.0	0.0	0.0	1.0	69.12	0	61.5	13.059999999999999	0.0	0.0	0.0	0.0	0.0	0.0	0.0	0.0	0.0	0.0	61.5				
	10768	212.51	9.205	56.830000000000005	-38.42	1.0	301.55	1	212.51	212.51	0.0	0.0	0.0	0.0	0.0	0.0	0.0	0.0	0.0	0.0	266.8				
	10771	51.82	8.68	19.9	-2.54	1.0	72.35	1	51.82	51.82	0.0	0.0	0.0	0.0	0.0	0.0	0.0	0.0	0.0	0.0	51.825				
	10772	41.62	8.68	19.9	-2.54	1.0	52.68	1	41.62	41.62	0.0	0.0	0.0	0.0	0.0	0.0	0.0	0.0	0.0	0.0	51.825				
	10773	0.0	0.0	19.9	-2.54	1.0	66.71	0	51.82	20.88	0.0	0.0	0.0	0.0	0.0	0.0	0.0	0.0	0.0	0.0	51.83				
	10774	41.38	8.68	19.9	-2.54	1.0	57.61	1	41.38	41.38	0.0	0.0	0.0	0.0	0.0	0.0	0.0	0.0	0.0	0.0	51.825				
	10776	0.0	0.0	0.0	0.0	1.0	32.07	0	28.000000000000004	3.7699999999999996	0.0	0.0	0.0	0.0	0.0	0.0	0.0	0.0	0.0	0.0	28.0				
	10776	14.32	0.0	0.0	0.0	1.0	23.98	1	14.32	14.32	0.0	0.0	0.0	0.0	0.0	0.0	0.0	0.0	0.0	0.0	20.0				
	10778	8.03	1.675	3.84	-0.49	1.0	11.56	1	8.03	8.03	0.0	0.0	0.0	0.0	0.0	0.0	0.0	0.0	0.0	0.0	10.0				
	10778	14.800000000000002	2.475	5.68	-0.73	1.0	14.94	1	14.800000000000002	14.800000000000002	0.0	0.0	0.0	0.0	0.0	0.0	0.0	0.0	0.0	0.0	14.8				
	10782	13.43	0.0	0.0	0.0	1.0	27.32	1	13.43	13.43	0.0	0.0	0.0	0.0	0.0	0.0	0.0	0.0	0.0	0.0	18.3333				
	10782	14.649999999999999	0.0	0.0	0.0	1.0	18.63	1	14.649999999999999	14.649999999999999	0.0	0.0	0.0	0.0	0.0	0.0	0.0	0.0	0.0	0.0	18.3333				
	10783	13.239999999999998	0.0	0.0	0.0	1.0	22.11	1	13.239999999999998	13.239999999999998	0.0	0.0	0.0	0.0	0.0	0.0	0.0	0.0	0.0	0.0	18.3333				
	10784	17.21	0.0	0.0	0.0	1.0	43.83	1	17.21	17.21	0.0	0.0	0.0	0.0	0.0	0.0	0.0	0.0	0.0	0.0	39.4				
	10784	42.83	0.0	0.0	0.0	1.0	64.64	1	42.83	42.83	0.0	0.0	0.0	0.0	0.0	0.0	0.0	0.0	0.0	0.0	58.2				
	10785	39.4	0.0	0.0	0.0	1.0	44.46	1	39.4	39.4	0.0	0.0	0.0	0.0	0.0	0.0	0.0	0.0	0.0	0.0	39.4				
	10785	31.08	0.0	0.0	0.0	1.0	49.64	1	31.08	31.08	0.0	0.0	0.0	0.0	0.0	0.0	0.0	0.0	0.0	0.0	39.4				
	10791	58.20000000000001	3.6350000000000002	22.43	-15.160000000000002	1.0	136.19	1	58.20000000000001	58.20000000000001	0.0	0.0	0.0	0.0	0.0	0.0	0.0	0.0	0.0	0.0	105.3				
	10796	0.0	0.0	21.23	-4.63	1.0	55.57	0	41.7	7.42	0.0	0.0	0.0	0.0	0.0	0.0	0.0	0.0	0.0	0.0	41.7				
	10797	25.264999999999997	8.3	21.23	-4.63	1.0	62.55	1	41.7	8.83	0.0	0.0	0.0	0.0	0.0	0.0	0.0	0.0	0.0	0.0	41.7				
	10797	29.17	8.3	21.23	-4.63	1.0	41.7	1	41.7	16.64	0.0	0.0	0.0	0.0	0.0	0.0	0.0	0.0	0.0	0.0	41.7				
	10798	27.754999999999995	8.3	21.23	-4.63	1.0	41.7	1	41.7	13.81	0.0	0.0	0.0	0.0	0.0	0.0	0.0	0.0	0.0	0.0	41.7				
	10800	82.34	3.375	20.83	-14.08	1.0	129.15	1	82.34	82.34	0.0	0.0	0.0	0.0	0.0	0.0	0.0	0.0	0.0	0.0	97.8				
	10802	10.22	2.01	4.61	-0.59	1.0	14.15	1	10.22	10.22	0.0	0.0	0.0	0.0	0.0	0.0	0.0	0.0	0.0	0.0	12.0				
	10803	12.0	2.01	4.61	-0.59	1.0	12.12	1	12.0	12.0	0.0	0.0	0.0	0.0	0.0	0.0	0.0	0.0	0.0	0.0	12.0				
	10806	34.74	7.64	17.51	-2.23	1.0	52.42	1	34.74	34.74	0.0	0.0	0.0	0.0	0.0	0.0	0.0	0.0	0.0	0.0	45.6				
	10806	42.97	7.64	17.51	-2.23	1.0	61.48	1	42.97	42.97	0.0	0.0	0.0	0.0	0.0	0.0	0.0	0.0	0.0	0.0	45.6				
	10807	0.0	0.0	17.51	-2.23	1.0	68.4	0	45.6	21.01	0.0	0.0	0.0	0.0	0.0	0.0	0.0	0.0	0.0	0.0	45.6				
	10807	30.260000000000005	7.64	17.51	-2.23	1.0	51.24	1	30.260000000000005	30.260000000000005	0.0	0.0	0.0	0.0	0.0	0.0	0.0	0.0	0.0	0.0	45.6				
	10811	834.565	171.6	441.6	-98.4	1.0	1400.38	1	1200.0	469.13	0.0	0.0	0.0	0.0	0.0	0.0	0.0	0.0	0.0	0.0	1200.0				
	10813	56.32	11.225	25.730000000000004	-3.2799999999999994	1.0	74.5	1	56.32	56.32	0.0	0.0	0.0	0.0	0.0	0.0	0.0	0.0	0.0	0.0	67.0				
	10813	0.0	0.0	25.730000000000004	-3.2799999999999994	1.0	91.7	0	67.0	30.37	0.0	0.0	0.0	0.0	0.0	0.0	0.0	0.0	0.0	0.0	67.0				
	10817	50.7	0.0	0.0	0.0	1.0	68.96	1	50.7	50.7	0.0	0.0	0.0	0.0	0.0	0.0	0.0	0.0	0.0	0.0	50.7				
	10818	0.0	0.0	0.0	0.0	1.0	7.2	0	7.200000000000001	2.33	0.0	0.0	0.0	0.0	0.0	0.0	0.0	0.0	0.0	0.0	7.2				
	10821	0.0	0.0	32.21	-21.77	1.0	208.02	0	151.2	63.85000000000001	0.0	0.0	0.0	0.0	0.0	0.0	0.0	0.0	0.0	0.0	151.2				
	10829	75.24	22.61	51.84000000000001	-6.619999999999999	1.0	168.3	1	75.24	75.24	0.0	0.0	0.0	0.0	0.0	0.0	0.0	0.0	0.0	0.0	135.0				
	10830	135.0	22.61	51.84000000000001	-6.619999999999999	1.0	159.7	1	135.0	135.0	0.0	0.0	0.0	0.0	0.0	0.0	0.0	0.0	0.0	0.0	135.0				
	10831	106.15	22.61	51.84000000000001	-6.619999999999999	1.0	152.07	1	106.15	106.15	0.0	0.0	0.0	0.0	0.0	0.0	0.0	0.0	0.0	0.0	135.0				
	10832	135.0	22.61	51.84000000000001	-6.619999999999999	1.0	143.54	1	135.0	135.0	0.0	0.0	0.0	0.0	0.0	0.0	0.0	0.0	0.0	0.0	135.0				
	10833	88.14	22.61	51.84000000000001	-6.619999999999999	1.0	177.11	1	88.14	88.14	0.0	0.0	0.0	0.0	0.0	0.0	0.0	0.0	0.0	0.0	135.0				
	10834	75.59	22.61	51.84000000000001	-6.619999999999999	1.0	175.15	1	75.59	75.59	0.0	0.0	0.0	0.0	0.0	0.0	0.0	0.0	0.0	0.0	135.0				
	10836	54.735	17.69	45.25	-9.87	1.0	116.35	1	88.9	20.57	0.0	0.0	0.0	0.0	0.0	0.0	0.0	0.0	0.0	0.0	88.9				
	10836	51.910000000000004	17.69	45.25	-9.87	1.0	90.43	1	88.9	14.92	0.0	0.0	0.0	0.0	0.0	0.0	0.0	0.0	0.0	0.0	88.9				
	10838	45.58	0.0	0.0	0.0	1.0	91.58	1	45.58	45.58	0.0	0.0	0.0	0.0	0.0	0.0	0.0	0.0	0.0	0.0	64.0				
	10842	10.5	2.145	4.92	-0.63	1.0	12.8	1	10.5	10.5	0.0	0.0	0.0	0.0	0.0	0.0	0.0	0.0	0.0	0.0	12.8				
	10842	8.22	2.145	4.92	-0.63	1.0	16.02	1	8.22	8.22	0.0	0.0	0.0	0.0	0.0	0.0	0.0	0.0	0.0	0.0	12.8				
	10843	11.05	2.145	4.92	-0.63	1.0	13.06	1	11.05	11.05	0.0	0.0	0.0	0.0	0.0	0.0	0.0	0.0	0.0	0.0	12.8				
	10843	0.0	0.0	4.92	-0.63	1.0	14.28	0	12.8	3.56	0.0	0.0	0.0	0.0	0.0	0.0	0.0	0.0	0.0	0.0	12.8				
	10843	8.89	2.145	4.92	-0.63	1.0	12.8	1	8.89	8.89	0.0	0.0	0.0	0.0	0.0	0.0	0.0	0.0	0.0	0.0	12.8				
	10847	100.49999999999999	16.835	38.59	-4.92	1.0	118.86	1	100.49999999999999	100.49999999999999	0.0	0.0	0.0	0.0	0.0	0.0	0.0	0.0	0.0	0.0	100.5				
	10848	78.52	16.835	38.59	-4.92	1.0	140.04	1	78.52	78.52	0.0	0.0	0.0	0.0	0.0	0.0	0.0	0.0	0.0	0.0	100.5				
	10849	83.39	16.835	38.59	-4.92	1.0	128.45	1	83.39	83.39	0.0	0.0	0.0	0.0	0.0	0.0	0.0	0.0	0.0	0.0	100.5				
	10850	87.3	16.835	38.59	-4.92	1.0	120.81	1	87.3	87.3	0.0	0.0	0.0	0.0	0.0	0.0	0.0	0.0	0.0	0.0	100.5				
	10851	80.36	16.835	38.59	-4.92	1.0	108.12	1	80.36	80.36	0.0	0.0	0.0	0.0	0.0	0.0	0.0	0.0	0.0	0.0	100.5				
	10852	99.06	16.835	38.59	-4.92	1.0	100.5	1	99.06	99.06	0.0	0.0	0.0	0.0	0.0	0.0	0.0	0.0	0.0	0.0	100.5				
	10853	0.0	0.0	3.84	-0.49	1.0	13.29	0	10.0	3.4300000000000006	0.0	0.0	0.0	0.0	0.0	0.0	0.0	0.0	0.0	0.0	10.0				
	10859	0.0	0.0	340.13	-89.05	1.0	844.8	0	729.9	357.25	0.0	0.0	0.0	0.0	0.0	0.0	0.0	0.0	0.0	0.0	729.9				
	10860	521.045	125.54	340.13	-89.05	1.0	887.05	1	729.9	312.19	0.0	0.0	0.0	0.0	0.0	0.0	0.0	0.0	0.0	0.0	729.9				
	10864	103.61	25.124999999999996	57.60000000000001	-7.35	1.0	187.87	1	103.61	103.61	0.0	0.0	0.0	0.0	0.0	0.0	0.0	0.0	0.0	0.0	150.0				
	10865	110.96	25.124999999999996	57.60000000000001	-7.35	1.0	209.0	1	110.96	110.96	0.0	0.0	0.0	0.0	0.0	0.0	0.0	0.0	0.0	0.0	150.0				
	10867	11.12	2.51	5.76	-0.74	1.0	15.21	1	11.12	11.12	0.0	0.0	0.0	0.0	0.0	0.0	0.0	0.0	0.0	0.0	15.0				
	10867	11.39	2.51	5.76	-0.74	1.0	20.37	1	11.39	11.39	0.0	0.0	0.0	0.0	0.0	0.0	0.0	0.0	0.0	0.0	15.0				
	10869	0.0	0.0	3.84	-0.49	1.0	10.0	0	10.0	3.11	0.0	0.0	0.0	0.0	0.0	0.0	0.0	0.0	0.0	0.0	10.0				
	10869	10.0	1.675	3.84	-0.49	1.0	11.12	1	10.0	10.0	0.0	0.0	0.0	0.0	0.0	0.0	0.0	0.0	0.0	0.0	10.0				
	10872	44.945	12.3	31.46	-6.860000000000001	1.0	90.38	1	61.8	28.09	0.0	0.0	0.0	0.0	0.0	0.0	0.0	0.0	0.0	0.0	61.8				
	10873	21.91	4.96	11.37	-1.45	1.0	33.07	1	21.91	21.91	0.0	0.0	0.0	0.0	0.0	0.0	0.0	0.0	0.0	0.0	29.6				
	10873	0.0	0.0	11.37	-1.45	1.0	38.51	0	29.600000000000005	4.59	0.0	0.0	0.0	0.0	0.0	0.0	0.0	0.0	0.0	0.0	29.6				
	10879	70.43	22.61	51.84000000000001	-6.619999999999999	1.0	149.8	1	70.43	70.43	0.0	0.0	0.0	0.0	0.0	0.0	0.0	0.0	0.0	0.0	135.0				
	10880	109.22	22.61	51.84000000000001	-6.619999999999999	1.0	177.0	1	109.22	109.22	0.0	0.0	0.0	0.0	0.0	0.0	0.0	0.0	0.0	0.0	135.0				
	10881	73.16	22.61	51.84000000000001	-6.619999999999999	1.0	178.0	1	73.16	73.16	0.0	0.0	0.0	0.0	0.0	0.0	0.0	0.0	0.0	0.0	135.0				
	10882	0.0	0.0	51.84000000000001	-6.619999999999999	1.0	183.66	0	135.0	26.85	0.0	0.0	0.0	0.0	0.0	0.0	0.0	0.0	0.0	0.0	135.0				
	10883	0.0	0.0	51.84000000000001	-6.619999999999999	1.0	146.95	0	135.0	57.54	0.0	0.0	0.0	0.0	0.0	0.0	0.0	0.0	0.0	0.0	135.0				
	10884	118.13	22.61	51.84000000000001	-6.619999999999999	1.0	153.95	1	118.13	118.13	0.0	0.0	0.0	0.0	0.0	0.0	0.0	0.0	0.0	0.0	135.0				
	10889	65.715	17.47	44.69	-9.75	1.0	110.05	1	87.8	43.63	0.0	0.0	0.0	0.0	0.0	0.0	0.0	0.0	0.0	0.0	87.8				
	10890	0.0	0.0	19.19	-4.18	1.0	38.42	0	37.7	15.1	0.0	0.0	0.0	0.0	0.0	0.0	0.0	0.0	0.0	0.0	37.7				
	10895	66.475	18.71	47.85	-10.43	1.0	115.42	1	94.0	38.95	0.0	0.0	0.0	0.0	0.0	0.0	0.0	0.0	0.0	0.0	94.0				
	10896	52.805	18.71	47.85	-10.43	1.0	108.98	1	94.0	11.61	0.0	0.0	0.0	0.0	0.0	0.0	0.0	0.0	0.0	0.0	94.0				
	10897	61.33500000000001	18.71	47.85	-10.43	1.0	118.83	1	94.0	28.67	0.0	0.0	0.0	0.0	0.0	0.0	0.0	0.0	0.0	0.0	94.0				
	10898	66.86	18.71	47.85	-10.43	1.0	138.07	1	94.0	39.72	0.0	0.0	0.0	0.0	0.0	0.0	0.0	0.0	0.0	0.0	94.0				
	10901	36.21	7.705000000000001	17.66	-2.25	1.0	61.88	1	36.21	36.21	0.0	0.0	0.0	0.0	0.0	0.0	0.0	0.0	0.0	0.0	46.0				
	10902	0.0	0.0	17.66	-2.25	1.0	46.65	0	46.0	10.13	0.0	0.0	0.0	0.0	0.0	0.0	0.0	0.0	0.0	0.0	46.0				
	10904	37.13	1.725	10.65	-7.200000000000001	1.0	64.29	1	37.13	37.13	0.0	0.0	0.0	0.0	0.0	0.0	0.0	0.0	0.0	0.0	50.0				
	10908	115.41	28.62	65.61	-8.37	1.0	202.81	1	115.41	115.41	0.0	0.0	0.0	0.0	0.0	0.0	0.0	0.0	0.0	0.0	170.8667				
	10909	0.0	0.0	65.61	-8.37	1.0	171.05	0	170.87	37.23	0.0	0.0	0.0	0.0	0.0	0.0	0.0	0.0	0.0	0.0	170.8667				
	10910	99.62	28.62	65.61	-8.37	1.0	185.54	1	99.62	99.62	0.0	0.0	0.0	0.0	0.0	0.0	0.0	0.0	0.0	0.0	170.8667				
	10911	0.0	0.0	65.61	-8.37	1.0	205.0	0	170.87	51.88	0.0	0.0	0.0	0.0	0.0	0.0	0.0	0.0	0.0	0.0	170.8667				
	10912	116.3	28.62	65.61	-8.37	1.0	246.02	1	116.3	116.3	0.0	0.0	0.0	0.0	0.0	0.0	0.0	0.0	0.0	0.0	170.87				
	10913	0.0	0.0	65.61	-8.37	1.0	188.36	0	170.87	17.56	0.0	0.0	0.0	0.0	0.0	0.0	0.0	0.0	0.0	0.0	170.8667				
	10914	7.23	1.575	3.61	-0.45999999999999996	1.0	9.4	1	7.23	7.23	0.0	0.0	0.0	0.0	0.0	0.0	0.0	0.0	0.0	0.0	9.4				
	10919	112.5	18.845	43.2	-5.51	1.0	148.42	1	112.5	112.5	0.0	0.0	0.0	0.0	0.0	0.0	0.0	0.0	0.0	0.0	112.5				
	10920	0.0	0.0	43.2	-5.51	1.0	112.95	0	112.5	49.16	0.0	0.0	0.0	0.0	0.0	0.0	0.0	0.0	0.0	0.0	112.5				
	10921	93.79	18.845	43.2	-5.51	1.0	131.63	1	93.79	93.79	0.0	0.0	0.0	0.0	0.0	0.0	0.0	0.0	0.0	0.0	112.5				
	10922	0.0	0.0	43.2	-5.51	1.0	153.59	0	112.5	42.5	0.0	0.0	0.0	0.0	0.0	0.0	0.0	0.0	0.0	0.0	112.5				
	10923	52.245	16.835	43.06	-9.39	1.0	107.98	1	84.6	19.89	0.0	0.0	0.0	0.0	0.0	0.0	0.0	0.0	0.0	0.0	84.6				
	10923	59.8	16.835	43.06	-9.39	1.0	85.56	1	84.6	35.0	0.0	0.0	0.0	0.0	0.0	0.0	0.0	0.0	0.0	0.0	84.6				
	10925	16.8	2.815	6.45	-0.8199999999999998	1.0	16.87	1	16.8	16.8	0.0	0.0	0.0	0.0	0.0	0.0	0.0	0.0	0.0	0.0	16.8				
	10925	6.52	1.255	2.88	-0.37	1.0	8.37	1	6.52	6.52	0.0	0.0	0.0	0.0	0.0	0.0	0.0	0.0	0.0	0.0	7.5				
	10930	158.415	46.3	118.43	-25.83	1.0	310.59	1	232.67	84.16	0.0	0.0	0.0	0.0	0.0	0.0	0.0	0.0	0.0	0.0	232.6667				
	10931	135.32	46.3	118.43	-25.83	1.0	290.05	1	232.67	37.97	0.0	0.0	0.0	0.0	0.0	0.0	0.0	0.0	0.0	0.0	232.6667				
	10932	161.72	46.3	118.43	-25.83	1.0	261.17	1	232.67	90.77	0.0	0.0	0.0	0.0	0.0	0.0	0.0	0.0	0.0	0.0	232.6667				
	10933	50.0	1.725	10.65	-7.200000000000001	1.0	50.0	1	50.0	50.0	0.0	0.0	0.0	0.0	0.0	0.0	0.0	0.0	0.0	0.0	50.0				
	10934	36.0	6.03	13.819999999999999	-1.76	1.0	39.66	1	36.0	36.0	0.0	0.0	0.0	0.0	0.0	0.0	0.0	0.0	0.0	0.0	36.0				
	10934	36.0	6.03	13.819999999999999	-1.76	1.0	53.42	1	36.0	36.0	0.0	0.0	0.0	0.0	0.0	0.0	0.0	0.0	0.0	0.0	36.0				
	10938	14.84	0.0	0.0	0.0	1.0	20.22	1	14.84	14.84	0.0	0.0	0.0	0.0	0.0	0.0	0.0	0.0	0.0	0.0	18.0				
	10939	7.5	0.0	0.0	0.0	1.0	8.1	1	7.5	7.5	0.0	0.0	0.0	0.0	0.0	0.0	0.0	0.0	0.0	0.0	7.5				
	10940	7.5	0.0	0.0	0.0	1.0	8.27	1	7.5	7.5	0.0	0.0	0.0	0.0	0.0	0.0	0.0	0.0	0.0	0.0	7.5				
	10944	123.26000000000002	22.61	51.84000000000001	-6.619999999999999	1.0	147.93	1	123.26000000000002	123.26000000000002	0.0	0.0	0.0	0.0	0.0	0.0	0.0	0.0	0.0	0.0	135.0				
	10945	118.78	22.61	51.84000000000001	-6.619999999999999	1.0	194.09	1	118.78	118.78	0.0	0.0	0.0	0.0	0.0	0.0	0.0	0.0	0.0	0.0	135.0				
	10946	135.0	22.61	51.84000000000001	-6.619999999999999	1.0	154.67	1	135.0	135.0	0.0	0.0	0.0	0.0	0.0	0.0	0.0	0.0	0.0	0.0	135.0				
	10947	109.11999999999999	22.61	51.84000000000001	-6.619999999999999	1.0	200.23	1	109.11999999999999	109.11999999999999	0.0	0.0	0.0	0.0	0.0	0.0	0.0	0.0	0.0	0.0	135.0				
	10948	0.0	0.0	51.84000000000001	-6.619999999999999	1.0	185.19	0	135.0	44.9	0.0	0.0	0.0	0.0	0.0	0.0	0.0	0.0	0.0	0.0	135.0				
	10949	90.42	22.61	51.84000000000001	-6.619999999999999	1.0	172.19	1	90.42	90.42	0.0	0.0	0.0	0.0	0.0	0.0	0.0	0.0	0.0	0.0	135.0				
	10951	0.0	0.0	7.429999999999999	-0.95	1.0	19.99	0	19.35	4.75	0.0	0.0	0.0	0.0	0.0	0.0	0.0	0.0	0.0	0.0	19.35				
	10951	0.0	0.0	7.429999999999999	-0.95	1.0	21.18	0	19.35	8.38	0.0	0.0	0.0	0.0	0.0	0.0	0.0	0.0	0.0	0.0	19.35				
	10955	32.11	5.695	13.059999999999999	-1.67	1.0	34.02	1	32.11	32.11	0.0	0.0	0.0	0.0	0.0	0.0	0.0	0.0	0.0	0.0	34.0				
	10955	17.04	5.695	13.059999999999999	-1.67	1.0	41.9	1	17.04	17.04	0.0	0.0	0.0	0.0	0.0	0.0	0.0	0.0	0.0	0.0	34.0				
	10956	0.0	0.0	13.059999999999999	-1.67	1.0	44.38	0	34.0	4.71	0.0	0.0	0.0	0.0	0.0	0.0	0.0	0.0	0.0	0.0	34.0				
	10956	0.0	0.0	13.059999999999999	-1.67	1.0	45.23	0	34.0	16.83	0.0	0.0	0.0	0.0	0.0	0.0	0.0	0.0	0.0	0.0	34.0				
	10959	221.29	9.045	55.85	-37.76	1.0	336.76	1	221.29	221.29	0.0	0.0	0.0	0.0	0.0	0.0	0.0	0.0	0.0	0.0	262.2				
	10965	0.0	0.0	73.0	-49.35	1.0	382.51	0	342.7	148.96	0.0	0.0	0.0	0.0	0.0	0.0	0.0	0.0	0.0	0.0	342.7				
	10966	0.0	0.0	2.65	-0.34	1.0	6.96	0	6.9	2.85	0.0	0.0	0.0	0.0	0.0	0.0	0.0	0.0	0.0	0.0	6.9				
	10966	5.28	1.155	2.65	-0.34	1.0	9.31	1	5.28	5.28	0.0	0.0	0.0	0.0	0.0	0.0	0.0	0.0	0.0	0.0	6.9				
	10966	20.12	4.605	10.56	-1.35	1.0	36.0	1	20.12	20.12	0.0	0.0	0.0	0.0	0.0	0.0	0.0	0.0	0.0	0.0	27.5				
	10969	0.0	0.0	13.23	-2.89	1.0	32.28	0	26.0	10.93	0.0	0.0	0.0	0.0	0.0	0.0	0.0	0.0	0.0	0.0	26.0				
	10972	13.16	2.93	6.72	-0.86	1.0	18.98	1	13.16	13.16	0.0	0.0	0.0	0.0	0.0	0.0	0.0	0.0	0.0	0.0	17.5				
	10972	17.5	2.93	6.72	-0.86	1.0	21.37	1	17.5	17.5	0.0	0.0	0.0	0.0	0.0	0.0	0.0	0.0	0.0	0.0	17.5				
	10973	0.0	0.0	6.72	-0.86	1.0	21.11	0	17.5	8.42	0.0	0.0	0.0	0.0	0.0	0.0	0.0	0.0	0.0	0.0	17.5				
	10973	17.5	2.93	6.72	-0.86	1.0	19.51	1	17.5	17.5	0.0	0.0	0.0	0.0	0.0	0.0	0.0	0.0	0.0	0.0	17.5				
	10978	95.9	3.3099999999999996	20.43	-13.81	1.0	103.8	1	95.9	95.9	0.0	0.0	0.0	0.0	0.0	0.0	0.0	0.0	0.0	0.0	95.9				
	10981	97.59	4.7	29.03	-19.63	1.0	168.9	1	97.59	97.59	0.0	0.0	0.0	0.0	0.0	0.0	0.0	0.0	0.0	0.0	136.3				
	10982	92.02	4.7	29.03	-19.63	1.0	154.45	1	92.02	92.02	0.0	0.0	0.0	0.0	0.0	0.0	0.0	0.0	0.0	0.0	136.3				
	10985	199.0	6.865	42.39	-28.660000000000004	1.0	199.13	1	199.0	199.0	0.0	0.0	0.0	0.0	0.0	0.0	0.0	0.0	0.0	0.0	199.0				
	10989	140.28	43.115	110.28	-24.05	1.0	295.91	1	216.67000000000002	63.89	0.0	0.0	0.0	0.0	0.0	0.0	0.0	0.0	0.0	0.0	216.67				
	10990	136.815	43.115	110.28	-24.05	1.0	242.35	1	216.67000000000002	56.96	0.0	0.0	0.0	0.0	0.0	0.0	0.0	0.0	0.0	0.0	216.6667				
	10991	119.68	43.115	110.28	-24.05	1.0	322.3	1	216.67000000000002	22.69	0.0	0.0	0.0	0.0	0.0	0.0	0.0	0.0	0.0	0.0	216.67				
	10993	0.0	0.0	7.919999999999999	-1.01	1.0	24.82	0	20.62	9.67	0.0	0.0	0.0	0.0	0.0	0.0	0.0	0.0	0.0	0.0	20.625				
	10993	0.0	0.0	7.919999999999999	-1.01	1.0	21.05	0	20.62	7.690000000000001	0.0	0.0	0.0	0.0	0.0	0.0	0.0	0.0	0.0	0.0	20.63				
	10994	0.0	0.0	7.919999999999999	-1.01	1.0	30.93	0	20.62	4.16	0.0	0.0	0.0	0.0	0.0	0.0	0.0	0.0	0.0	0.0	20.63				
	10995	20.62	3.4549999999999996	7.919999999999999	-1.01	1.0	25.07	1	20.62	20.62	0.0	0.0	0.0	0.0	0.0	0.0	0.0	0.0	0.0	0.0	20.625				
	10998	16.51	4.19	9.6	-1.22	1.0	34.25	1	16.51	16.51	0.0	0.0	0.0	0.0	0.0	0.0	0.0	0.0	0.0	0.0	25.0				
	10998	25.0	4.19	9.6	-1.22	1.0	28.91	1	25.0	25.0	0.0	0.0	0.0	0.0	0.0	0.0	0.0	0.0	0.0	0.0	25.0				
	11005	93.475	28.285	72.35	-15.78	1.0	171.01	1	142.15	44.8	0.0	0.0	0.0	0.0	0.0	0.0	0.0	0.0	0.0	0.0	142.15				
	11006	79.055	28.285	72.35	-15.78	1.0	185.88	1	142.15	15.960000000000003	0.0	0.0	0.0	0.0	0.0	0.0	0.0	0.0	0.0	0.0	142.15				
	11008	21.6	3.615	8.29	-1.06	1.0	27.1	1	21.6	21.6	0.0	0.0	0.0	0.0	0.0	0.0	0.0	0.0	0.0	0.0	21.6				
	11009	16.3	3.615	8.29	-1.06	1.0	22.46	1	16.3	16.3	0.0	0.0	0.0	0.0	0.0	0.0	0.0	0.0	0.0	0.0	21.6				
	11009	5.97	2.145	4.92	-0.63	1.0	19.2	1	5.97	5.97	0.0	0.0	0.0	0.0	0.0	0.0	0.0	0.0	0.0	0.0	12.8				
	11014	812.69	181.32	415.68000000000006	-53.04	1.0	1169.43	1	812.69	812.69	0.0	0.0	0.0	0.0	0.0	0.0	0.0	0.0	0.0	0.0	1082.5				
	11015	0.0	0.0	415.68000000000006	-53.04	1.0	1277.21	0	1082.5	277.82	0.0	0.0	0.0	0.0	0.0	0.0	0.0	0.0	0.0	0.0	1082.5				
	11016	1082.5	181.32	415.68000000000006	-53.04	1.0	1357.65	1	1082.5	1082.5	0.0	0.0	0.0	0.0	0.0	0.0	0.0	0.0	0.0	0.0	1082.5				
...
];

%% branch data
%    f_bus    t_bus    r    x    b    rateA    rateB    rateC    ratio    angle    status    angmin    angmax
mpc.branch = [
	10002	10001	0.057474	0.297874	0.04557	185.33	185.33	185.33	0	0	1	-29.999999999999996	29.999999999999996								
	10011	10001	0.027895	0.200986	0.06271	167.88	167.88	167.88	0	0	1	-29.999999999999996	29.999999999999996								
	10014	10002	0.028286	0.132954	0.07205	207.43	207.43	207.43	0	0	1	-29.999999999999996	29.999999999999996								
	10004	10003	0.012099	0.073288	0.01171	170.67	170.67	170.67	0	0	1	-29.999999999999996	29.999999999999996								
	10003	10010	0.012423	0.079127	0.01766	201.54000000000002	201.54000000000002	201.54000000000002	0	0	1	-29.999999999999996	29.999999999999996								
	10937	10003	0.009516	0.050189	0.02744	211.80000000000004	211.80000000000004	211.80000000000004	0	0	1	-29.999999999999996	29.999999999999996								
	10004	10005	0.000201	0.001173	0.0	0.0	0.0	0.0	0	0	1	-29.999999999999996	29.999999999999996								
	10004	10937	0.019482	0.100643	0.02121	195.1	195.1	195.1	0	0	1	-29.999999999999996	29.999999999999996								
	10006	10007	0.000272	0.001137	0.0	0.0	0.0	0.0	0	0	1	-29.999999999999996	29.999999999999996								
	10008	10007	0.00871	0.065557	0.0156	212.34000000000003	212.34000000000003	212.34000000000003	0	0	1	-29.999999999999996	29.999999999999996								
	10007	13019	0.005848	0.038664	0.02062	218.55	218.55	218.55	0	0	1	-29.999999999999996	29.999999999999996								
	10007	13028	0.018994	0.103855	0.1879	231.63	231.63	231.63	0	0	1	-29.999999999999996	29.999999999999996								
	10008	10009	0.000236	0.001046	0.0	0.0	0.0	0.0	0	0	1	-29.999999999999996	29.999999999999996								
	10016	10008	0.013033	0.083799	0.0301	229.92	229.92	229.92	0	0	1	-29.999999999999996	29.999999999999996								
	13019	10008	0.01355	0.065214	0.032	184.78	184.78	184.78	0	0	1	-29.999999999999996	29.999999999999996								
	10014	10010	0.007781	0.030841	0.02241	197.37	197.37	197.37	0	0	1	-29.999999999999996	29.999999999999996								
	10011	10020	0.022817	0.11103	0.02458	214.06	214.06	214.06	0	0	1	-29.999999999999996	29.999999999999996								
	10013	10012	0.000261	0.019344	0.0	473.63	473.63	473.63	1.0	0.0	1	-29.999999999999996	29.999999999999996								
	10012	10023	0.001396	0.016565	0.31452	1105.1	1105.1	1105.1	0	0	1	-29.999999999999996	29.999999999999996								
	10012	10987	0.000883	0.009393	0.17078	1237.08	1237.08	1237.08	0	0	1	-29.999999999999996	29.999999999999996								
	10014	10013	0.002093	0.00845	0.00407	236.46000000000004	236.46000000000004	236.46000000000004	0	0	1	-29.999999999999996	29.999999999999996								
	10013	10076	0.015367	0.101403	0.11511	239.71	239.71	239.71	0	0	1	-29.999999999999996	29.999999999999996								
	10014	10015	0.00027	0.001089	0.0	0.0	0.0	0.0	0	0	1	-29.999999999999996	29.999999999999996								
	10016	10017	0.00025	0.001152	0.0	0.0	0.0	0.0	0	0	1	-29.999999999999996	29.999999999999996								
	10016	13463	0.008946	0.046857	0.19885	245.26	245.26	245.26	0	0	1	-29.999999999999996	29.999999999999996								
	10018	10032	0.002241	0.0146	0.03367	250.62000000000003	250.62000000000003	250.62000000000003	0	0	1	-29.999999999999996	29.999999999999996								
	10018	10988	0.006284	0.038361	0.02021	263.59	263.59	263.59	0	0	1	-29.999999999999996	29.999999999999996								
	10020	10019	0.000533	0.033552	0.0	445.05	445.05	445.05	0.975	0.0	1	-29.999999999999996	29.999999999999996								
	10730	10019	0.002142	0.026863	0.58195	1150.4	1150.4	1150.4	0	0	1	-29.999999999999996	29.999999999999996								
	10020	10029	0.005708	0.039706	0.02239	233.76000000000002	233.76000000000002	233.76000000000002	0	0	1	-29.999999999999996	29.999999999999996								
	10021	13074	0.006464	0.035113	0.12496	251.36	251.36	251.36	0	0	1	-29.999999999999996	29.999999999999996								
	10021	13512	0.002495	0.018	0.01137	201.56	201.56	201.56	0	0	1	-29.999999999999996	29.999999999999996								
	13690	10021	0.005193	0.037293	0.01323	247.31	247.31	247.31	0	0	1	-29.999999999999996	29.999999999999996								
	10022	10024	0.001583	0.010843	0.00579	204.48	204.48	204.48	0	0	1	-29.999999999999996	29.999999999999996								
	10022	10030	0.007083	0.036561	0.01221	210.69	210.69	210.69	0	0	1	-29.999999999999996	29.999999999999996								
	10024	10023	0.000558	0.024885	0.0	465.77000000000004	465.77000000000004	465.77000000000004	1.03125	0.0	1	-29.999999999999996	29.999999999999996								
	10730	10023	0.000587	0.00738	0.21892	1205.73	1205.73	1205.73	0	0	1	-29.999999999999996	29.999999999999996								
	10987	10023	0.001084	0.012681	0.23685	1271.34	1271.34	1271.34	0	0	1	-29.999999999999996	29.999999999999996								
	10024	10039	0.003249	0.013727	0.00413	261.21	261.21	261.21	0	0	1	-29.999999999999996	29.999999999999996								
	10025	10858	0.006298	0.039083	0.03135	188.02	188.02	188.02	0	0	1	-29.999999999999996	29.999999999999996								
	10025	10929	0.012125	0.068124	0.01755	219.05	219.05	219.05	0	0	1	-29.999999999999996	29.999999999999996								
	10051	10026	0.004528	0.02582	0.01123	220.77	220.77	220.77	0	0	1	-29.999999999999996	29.999999999999996								
	10027	10028	0.000249	0.001026	0.0	0.0	0.0	0.0	0	0	1	-29.999999999999996	29.999999999999996								
	10027	10029	0.006288	0.036606	0.01108	209.68999999999997	209.68999999999997	209.68999999999997	0	0	1	-29.999999999999996	29.999999999999996								
	10054	10027	0.005908	0.03552	0.03718	199.0	199.0	199.0	0	0	1	-29.999999999999996	29.999999999999996								
	10030	10031	0.000244	0.001051	0.0	0.0	0.0	0.0	0	0	1	-29.999999999999996	29.999999999999996								
	10030	10988	0.011232	0.05541	0.03885	237.68000000000004	237.68000000000004	237.68000000000004	0	0	1	-29.999999999999996	29.999999999999996								
	10032	10040	0.005932	0.033216	0.0405	226.10000000000002	226.10000000000002	226.10000000000002	0	0	1	-29.999999999999996	29.999999999999996								
	10036	10033	0.001438	0.006275	0.00353	216.71999999999997	216.71999999999997	216.71999999999997	0	0	1	-29.999999999999996	29.999999999999996								
	10033	10045	0.010951	0.047533	0.03427	216.4	216.4	216.4	0	0	1	-29.999999999999996	29.999999999999996								
	10033	11071	0.001422	0.007398	0.00283	237.01	237.01	237.01	0	0	1	-29.999999999999996	29.999999999999996								
	10033	13147	0.007909	0.052892	0.05837	246.78999999999996	246.78999999999996	246.78999999999996	0	0	1	-29.999999999999996	29.999999999999996								
	10034	10035	0.000201	0.001022	0.0	0.0	0.0	0.0	0	0	1	-29.999999999999996	29.999999999999996								
	10034	10036	0.000248	0.001185	0.0	0.0	0.0	0.0	0	0	1	-29.999999999999996	29.999999999999996								
	11071	10036	0.0005	0.002496	0.00233	254.33000000000004	254.33000000000004	254.33000000000004	0	0	1	-29.999999999999996	29.999999999999996								
	10037	10041	0.003468	0.018993	0.08954	230.13	230.13	230.13	0	0	1	-29.999999999999996	29.999999999999996								
	10037	10053	0.006057	0.029228	0.21482	255.03	255.03	255.03	0	0	1	-29.999999999999996	29.999999999999996								
	10929	10037	0.004393	0.017586	0.00677	255.57	255.57	255.57	0	0	1	-29.999999999999996	29.999999999999996								
	10038	10039	0.000276	0.001086	0.0	0.0	0.0	0.0	0	0	1	-29.999999999999996	29.999999999999996								
	10040	10039	0.002872	0.01782	0.01246	243.11	243.11	243.11	0	0	1	-29.999999999999996	29.999999999999996								
	10040	10061	0.004531	0.021432	0.02901	245.08	245.08	245.08	0	0	1	-29.999999999999996	29.999999999999996								
	10045	10041	0.005713	0.03731	0.01199	236.56	236.56	236.56	0	0	1	-29.999999999999996	29.999999999999996								
	10041	10757	0.003754	0.019648	0.08439	270.97	270.97	270.97	0	0	1	-29.999999999999996	29.999999999999996								
	10112	10042	0.006696	0.033297	0.02397	241.86999999999998	241.86999999999998	241.86999999999998	0	0	1	-29.999999999999996	29.999999999999996								
	10042	10858	0.001268	0.003825	0.00121	265.85	265.85	265.85	0	0	1	-29.999999999999996	29.999999999999996								
	10043	10044	0.000235	0.001166	0.0	0.0	0.0	0.0	0	0	1	-29.999999999999996	29.999999999999996								
	10065	10043	0.004192	0.027014	0.0131	234.78	234.78	234.78	0	0	1	-29.999999999999996	29.999999999999996								
	10043	10731	0.008235	0.049341	0.02223	254.45	254.45	254.45	0	0	1	-29.999999999999996	29.999999999999996								
	10046	10047	0.000221	0.001009	0.0	0.0	0.0	0.0	0	0	1	-29.999999999999996	29.999999999999996								
	10049	10046	0.001366	0.006447	0.0035	199.81	199.81	199.81	0	0	1	-29.999999999999996	29.999999999999996								
	10046	10053	0.004165	0.027215	0.0075	230.09	230.09	230.09	0	0	1	-29.999999999999996	29.999999999999996								
	10046	10060	0.003004	0.017196	0.00465	209.43	209.43	209.43	0	0	1	-29.999999999999996	29.999999999999996								
	10048	10049	0.000233	0.001054	0.0	0.0	0.0	0.0	0	0	1	-29.999999999999996	29.999999999999996								
	10048	10050	0.000219	0.001026	0.0	0.0	0.0	0.0	0	0	1	-29.999999999999996	29.999999999999996								
	10049	10858	0.008744	0.048084	0.03521	236.41	236.41	236.41	0	0	1	-29.999999999999996	29.999999999999996								
	10051	10052	0.000267	0.001152	0.0	0.0	0.0	0.0	0	0	1	-29.999999999999996	29.999999999999996								
	10051	10106	0.011558	0.052554	0.06616	232.86	232.86	232.86	0	0	1	-29.999999999999996	29.999999999999996								
	10054	10087	0.009807	0.051866	0.06321	227.67	227.67	227.67	0	0	1	-29.999999999999996	29.999999999999996								
	10055	10056	0.000299	0.001016	0.0	0.0	0.0	0.0	0	0	1	-29.999999999999996	29.999999999999996								
	10071	10056	0.001756	0.013175	0.01312	213.53999999999996	213.53999999999996	213.53999999999996	0	0	1	-29.999999999999996	29.999999999999996								
	10056	10111	0.005763	0.031111	0.07264	227.01	227.01	227.01	0	0	1	-29.999999999999996	29.999999999999996								
	10058	10057	0.000543	0.025187	0.0	466.21	466.21	466.21	1.0	0.0	1	-29.999999999999996	29.999999999999996								
	10057	10059	0.000237	0.001074	0.0	0.0	0.0	0.0	0	0	1	-29.999999999999996	29.999999999999996								
	10060	10058	0.001632	0.010946	0.00846	201.84000000000003	201.84000000000003	201.84000000000003	0	0	1	-29.999999999999996	29.999999999999996								
	10058	10072	0.001803	0.013354	0.00342	235.48	235.48	235.48	0	0	1	-29.999999999999996	29.999999999999996								
	10058	10099	0.003268	0.021191	0.03671	230.02000000000004	230.02000000000004	230.02000000000004	0	0	1	-29.999999999999996	29.999999999999996								
	10059	10462	0.001137	0.014419	0.70236	1228.28	1228.28	1228.28	0	0	1	-29.999999999999996	29.999999999999996								
	10857	10059	0.000837	0.00946	0.19427	1358.91	1358.91	1358.91	0	0	1	-29.999999999999996	29.999999999999996								
	10061	10133	0.002583	0.013741	0.01254	211.24999999999997	211.24999999999997	211.24999999999997	0	0	1	-29.999999999999996	29.999999999999996								
	10062	10063	0.000252	0.001023	0.0	0.0	0.0	0.0	0	0	1	-29.999999999999996	29.999999999999996								
	10062	10064	0.000263	0.001129	0.0	0.0	0.0	0.0	0	0	1	-29.999999999999996	29.999999999999996								
	10065	10063	0.003065	0.018143	0.00658	196.02	196.02	196.02	0	0	1	-29.999999999999996	29.999999999999996								
	10063	10149	0.003675	0.024161	0.01534	206.38	206.38	206.38	0	0	1	-29.999999999999996	29.999999999999996								
	10065	10068	0.000841	0.025733	0.0	108.63000000000001	108.63000000000001	108.63000000000001	1.0	0.0	1	-29.999999999999996	29.999999999999996								
	10066	10068	0.008435	0.258035	0.0	54.31	54.31	54.31	1.0	0.0	1	-29.999999999999996	29.999999999999996								
	10067	10068	0.008435	0.258035	0.0	54.31	54.31	54.31	1.0	0.0	1	-29.999999999999996	29.999999999999996								
	10069	10074	0.005928	0.033632	0.01174	203.82	203.82	203.82	0	0	1	-29.999999999999996	29.999999999999996								
	10781	10069	0.002921	0.013747	0.0102	244.58	244.58	244.58	0	0	1	-29.999999999999996	29.999999999999996								
	10070	10090	0.002734	0.018279	0.01645	221.92	221.92	221.92	0	0	1	-29.999999999999996	29.999999999999996								
	10095	10070	0.003473	0.022438	0.00952	229.14	229.14	229.14	0	0	1	-29.999999999999996	29.999999999999996								
	10112	10071	0.003379	0.016953	0.02423	236.16000000000003	236.16000000000003	236.16000000000003	0	0	1	-29.999999999999996	29.999999999999996								
	10071	10153	0.002966	0.015795	0.10033	232.27	232.27	232.27	0	0	1	-29.999999999999996	29.999999999999996								
	10072	10073	0.000299	0.001136	0.0	0.0	0.0	0.0	0	0	1	-29.999999999999996	29.999999999999996								
	10072	10155	0.005629	0.029688	0.00699	205.7	205.7	205.7	0	0	1	-29.999999999999996	29.999999999999996								
	10074	10075	0.000228	0.001097	0.0	0.0	0.0	0.0	0	0	1	-29.999999999999996	29.999999999999996								
	13154	10074	0.007954	0.050685	0.01611	181.22	181.22	181.22	0	0	1	-29.999999999999996	29.999999999999996								
	10076	10133	0.001323	0.006403	0.02926	218.86999999999998	218.86999999999998	218.86999999999998	0	0	1	-29.999999999999996	29.999999999999996								
	10077	10092	0.002248	0.011411	0.00481	205.12	205.12	205.12	0	0	1	-29.999999999999996	29.999999999999996								
	10077	10097	0.007262	0.029947	0.08604	216.78000000000003	216.78000000000003	216.78000000000003	0	0	1	-29.999999999999996	29.999999999999996								
	10077	10137	0.005965	0.022809	0.03097	236.35000000000002	236.35000000000002	236.35000000000002	0	0	1	-29.999999999999996	29.999999999999996								
	10077	13292	0.002442	0.014841	0.00883	229.46	229.46	229.46	0	0	1	-29.999999999999996	29.999999999999996								
	10078	10081	0.001569	0.086936	0.0	616.81	616.81	616.81	1.0	0.0	1	-29.999999999999996	29.999999999999996								
	10078	10838	0.000957	0.012068	0.68187	1170.64	1170.64	1170.64	0	0	1	-29.999999999999996	29.999999999999996								
	10079	10081	-0.000917	-0.05082	0.0	466.81	466.81	466.81	1.0	0.0	1	-29.999999999999996	29.999999999999996								
	10079	10124	0.003042	0.017445	0.006	219.63999999999996	219.63999999999996	219.63999999999996	0	0	1	-29.999999999999996	29.999999999999996								
	10140	10079	0.003	0.01806	0.03375	246.83	246.83	246.83	0	0	1	-29.999999999999996	29.999999999999996								
	10080	10081	0.004152	0.230086	0.0	150.0	150.0	150.0	1.0	0.0	1	-29.999999999999996	29.999999999999996								
	10082	10083	0.00028	0.001062	0.0	0.0	0.0	0.0	0	0	1	-29.999999999999996	29.999999999999996								
	10113	10082	0.002023	0.016404	0.00465	182.93	182.93	182.93	0	0	1	-29.999999999999996	29.999999999999996								
	10082	10121	0.00212	0.010107	0.00756	198.55	198.55	198.55	0	0	1	-29.999999999999996	29.999999999999996								
	10084	10085	0.000226	0.001179	0.0	0.0	0.0	0.0	0	0	1	-29.999999999999996	29.999999999999996								
	10084	10086	0.000207	0.001005	0.0	0.0	0.0	0.0	0	0	1	-29.999999999999996	29.999999999999996								
	10086	10136	0.002643	0.017986	0.0103	216.7	216.7	216.7	0	0	1	-29.999999999999996	29.999999999999996								
	10086	10216	0.010323	0.054805	0.04341	176.23	176.23	176.23	0	0	1	-29.999999999999996	29.999999999999996								
	10087	10121	0.007479	0.034982	0.01936	206.89	206.89	206.89	0	0	1	-29.999999999999996	29.999999999999996								
	10203	10087	0.004732	0.032055	0.02713	214.83000000000004	214.83000000000004	214.83000000000004	0	0	1	-29.999999999999996	29.999999999999996								
	10088	10089	0.000254	0.001123	0.0	0.0	0.0	0.0	0	0	1	-29.999999999999996	29.999999999999996								
	10088	10128	0.001619	0.009116	0.0026	258.98	258.98	258.98	0	0	1	-29.999999999999996	29.999999999999996								
	10088	10149	0.002097	0.01208	0.00604	223.8	223.8	223.8	0	0	1	-29.999999999999996	29.999999999999996								
	10088	10227	0.005323	0.028924	0.0371	212.32999999999998	212.32999999999998	212.32999999999998	0	0	1	-29.999999999999996	29.999999999999996								
	10090	10138	0.00331	0.017372	0.00479	189.9	189.9	189.9	0	0	1	-29.999999999999996	29.999999999999996								
	10090	10149	0.007326	0.033046	0.01205	172.91	172.91	172.91	0	0	1	-29.999999999999996	29.999999999999996								
	10137	10091	0.001153	0.00794	0.00434	248.05	248.05	248.05	0	0	1	-29.999999999999996	29.999999999999996								
	10091	10176	0.00345	0.019599	0.02875	214.01	214.01	214.01	0	0	1	-29.999999999999996	29.999999999999996								
	10091	10954	0.003029	0.013701	0.0419	249.45	249.45	249.45	0	0	1	-29.999999999999996	29.999999999999996								
	10092	10148	0.002731	0.0163	0.00861	229.01	229.01	229.01	0	0	1	-29.999999999999996	29.999999999999996								
	10092	10173	0.005409	0.027737	0.02911	235.88	235.88	235.88	0	0	1	-29.999999999999996	29.999999999999996								
	10093	13144	0.009419	0.072795	0.02979	218.69	218.69	218.69	0	0	1	-29.999999999999996	29.999999999999996								
	10093	13147	0.003349	0.016415	0.06083	258.14	258.14	258.14	0	0	1	-29.999999999999996	29.999999999999996								
	10093	13182	0.004096	0.021643	0.00554	234.34	234.34	234.34	0	0	1	-29.999999999999996	29.999999999999996								
	10093	13204	0.00351	0.017155	0.01854	217.58	217.58	217.58	0	0	1	-29.999999999999996	29.999999999999996								
	13292	10093	0.002609	0.012396	0.00539	233.12	233.12	233.12	0	0	1	-29.999999999999996	29.999999999999996								
	10094	10095	0.000229	0.001065	0.0	0.0	0.0	0.0	0	0	1	-29.999999999999996	29.999999999999996								
	10094	10096	0.000203	0.00105	0.0	0.0	0.0	0.0	0	0	1	-29.999999999999996	29.999999999999996								
	10133	10095	0.002794	0.018339	0.0116	168.25	168.25	168.25	0	0	1	-29.999999999999996	29.999999999999996								
	10095	11010	0.009226	0.049923	0.08677	241.84	241.84	241.84	0	0	1	-29.999999999999996	29.999999999999996								
	10097	10954	0.005361	0.031109	0.01035	240.32	240.32	240.32	0	0	1	-29.999999999999996	29.999999999999996								
	10098	10099	0.000291	0.001137	0.0	0.0	0.0	0.0	0	0	1	-29.999999999999996	29.999999999999996								
	10155	10099	0.001709	0.009509	0.01513	214.82000000000002	214.82000000000002	214.82000000000002	0	0	1	-29.999999999999996	29.999999999999996								
	10100	10101	0.000217	0.001047	0.0	0.0	0.0	0.0	0	0	1	-29.999999999999996	29.999999999999996								
	10100	10102	0.000274	0.001162	0.0	0.0	0.0	0.0	0	0	1	-29.999999999999996	29.999999999999996								
	13260	10101	0.001371	0.006628	0.0094	194.26	194.26	194.26	0	0	1	-29.999999999999996	29.999999999999996								
	13301	10101	0.001586	0.00633	0.00271	212.88	212.88	212.88	0	0	1	-29.999999999999996	29.999999999999996								
	13314	10101	0.000606	0.003748	0.00188	194.85	194.85	194.85	0	0	1	-29.999999999999996	29.999999999999996								
	10103	10104	0.000294	0.00104	0.0	0.0	0.0	0.0	0	0	1	-29.999999999999996	29.999999999999996								
	10103	10105	0.000252	0.00112	0.0	0.0	0.0	0.0	0	0	1	-29.999999999999996	29.999999999999996								
	10131	10105	0.000329	0.00205	0.00161	209.77	209.77	209.77	0	0	1	-29.999999999999996	29.999999999999996								
	10148	10105	0.001119	0.007126	0.00294	143.75	143.75	143.75	0	0	1	-29.999999999999996	29.999999999999996								
	13285	10105	0.00187	0.009753	0.01147	211.97999999999996	211.97999999999996	211.97999999999996	0	0	1	-29.999999999999996	29.999999999999996								
	10106	10215	0.006435	0.048933	0.01513	212.57999999999998	212.57999999999998	212.57999999999998	0	0	1	-29.999999999999996	29.999999999999996								
	10107	10108	0.000211	0.001165	0.0	0.0	0.0	0.0	0	0	1	-29.999999999999996	29.999999999999996								
	10107	10109	0.000292	0.001026	0.0	0.0	0.0	0.0	0	0	1	-29.999999999999996	29.999999999999996								
	10108	10186	0.004715	0.024296	0.01313	249.27	249.27	249.27	0	0	1	-29.999999999999996	29.999999999999996								
	10203	10108	0.004364	0.027955	0.02179	235.31	235.31	235.31	0	0	1	-29.999999999999996	29.999999999999996								
	10110	10111	0.000221	0.001092	0.0	0.0	0.0	0.0	0	0	1	-29.999999999999996	29.999999999999996								
	10111	10213	0.007996	0.059293	0.03775	236.86	236.86	236.86	0	0	1	-29.999999999999996	29.999999999999996								
	10113	10114	0.000224	0.001119	0.0	0.0	0.0	0.0	0	0	1	-29.999999999999996	29.999999999999996								
	10113	10128	0.003764	0.017243	0.0787	216.3	216.3	216.3	0	0	1	-29.999999999999996	29.999999999999996								
	10128	10115	0.003638	0.016403	0.00482	234.53	234.53	234.53	0	0	1	-29.999999999999996	29.999999999999996								
	10140	10115	0.001712	0.01123	0.00312	212.46999999999997	212.46999999999997	212.46999999999997	0	0	1	-29.999999999999996	29.999999999999996								
	10118	10116	0.003108	0.019022	0.00851	188.83	188.83	188.83	0	0	1	-29.999999999999996	29.999999999999996								
	10116	10397	0.007777	0.036727	0.07404	221.58	221.58	221.58	0	0	1	-29.999999999999996	29.999999999999996								
	10116	10795	0.009396	0.055383	0.02548	245.76	245.76	245.76	0	0	1	-29.999999999999996	29.999999999999996								
	10117	10120	0.000915	0.037256	0.0	577.61	577.61	577.61	1.0	0.0	1	-29.999999999999996	29.999999999999996								
	10275	10117	0.001233	0.013303	0.39851	1345.52	1345.52	1345.52	0	0	1	-29.999999999999996	29.999999999999996								
	10799	10117	0.000771	0.009847	0.22998	1180.81	1180.81	1180.81	0	0	1	-29.999999999999996	29.999999999999996								
	10893	10117	0.000749	0.008125	0.20696	1332.36	1332.36	1332.36	0	0	1	-29.999999999999996	29.999999999999996								
	10118	10120	-7.8e-5	-0.003161	0.0	452.61000000000007	452.61000000000007	452.61000000000007	1.0	0.0	1	-29.999999999999996	29.999999999999996								
	10118	10186	0.003228	0.01551	0.00786	266.6	266.6	266.6	0	0	1	-29.999999999999996	29.999999999999996								
	10118	10244	0.003101	0.020077	0.05484	246.49	246.49	246.49	0	0	1	-29.999999999999996	29.999999999999996								
	10118	10300	0.004389	0.02992	0.0165	238.95	238.95	238.95	0	0	1	-29.999999999999996	29.999999999999996								
	10119	10120	0.00512	0.20846	0.0	125.0	125.0	125.0	1.0	0.0	1	-29.999999999999996	29.999999999999996								
	10121	10122	0.000227	0.001132	0.0	0.0	0.0	0.0	0	0	1	-29.999999999999996	29.999999999999996								
	10121	10124	0.002546	0.014044	0.00758	179.57	179.57	179.57	0	0	1	-29.999999999999996	29.999999999999996								
	10121	10325	0.004612	0.028803	0.06098	208.42000000000002	208.42000000000002	208.42000000000002	0	0	1	-29.999999999999996	29.999999999999996								
	10123	10124	0.000205	0.001152	0.0	0.0	0.0	0.0	0	0	1	-29.999999999999996	29.999999999999996								
	10123	10125	0.000224	0.001139	0.0	0.0	0.0	0.0	0	0	1	-29.999999999999996	29.999999999999996								
	10123	10126	0.000252	0.001083	0.0	0.0	0.0	0.0	0	0	1	-29.999999999999996	29.999999999999996								
	10128	10127	0.000312	0.020028	0.0	562.17	562.17	562.17	1.05625	0.0	1	-29.999999999999996	29.999999999999996								
	10127	10730	0.001135	0.014705	0.31386	1116.83	1116.83	1116.83	0	0	1	-29.999999999999996	29.999999999999996								
	10838	10127	0.000935	0.011435	0.21946	1195.62	1195.62	1195.62	0	0	1	-29.999999999999996	29.999999999999996								
	10128	10138	0.004035	0.026283	0.01205	239.6	239.6	239.6	0	0	1	-29.999999999999996	29.999999999999996								
	10129	13285	0.00062	0.00434	0.00183	221.18	221.18	221.18	0	0	1	-29.999999999999996	29.999999999999996								
	10129	13310	0.001977	0.012466	0.00452	239.02	239.02	239.02	0	0	1	-29.999999999999996	29.999999999999996								
	13314	10129	0.00057	0.004133	0.00873	231.06	231.06	231.06	0	0	1	-29.999999999999996	29.999999999999996								
	10130	10147	0.000599	0.003657	0.01431	223.05	223.05	223.05	0	0	1	-29.999999999999996	29.999999999999996								
	13312	10130	0.001639	0.011365	0.0026	182.98	182.98	182.98	0	0	1	-29.999999999999996	29.999999999999996								
	10131	10132	0.000247	0.001155	0.0	0.0	0.0	0.0	0	0	1	-29.999999999999996	29.999999999999996								
	10178	10131	0.002141	0.01383	0.00585	203.57	203.57	203.57	0	0	1	-29.999999999999996	29.999999999999996								
	10131	13300	0.000979	0.006112	0.00719	225.61	225.61	225.61	0	0	1	-29.999999999999996	29.999999999999996								
...
];

%%-----  OPF Data  -----%%
%% cost data
%    1    startup    shutdown    n    x1    y1    ...    xn    yn
%    2    startup    shutdown    n    c(n-1)    ...    c0
mpc.gencost = [
	2	0.0	0.0	3	0.0	0.0	0.0
	2	0.0	0.0	3	0.0	0.0	0.0
	2	0.0	0.0	3	0.0	0.0	0.0
	2	0.0	0.0	3	0.0	0.0	0.0
	2	0.0	0.0	3	0.0	0.0	0.0
	2	0.0	0.0	3	0.0	0.0	0.0
	2	0.0	0.0	3	0.0	0.0	0.0
	2	0.0	0.0	3	0.0	0.0	0.0
	2	0.0	0.0	3	0.0	0.0	0.0
	2	0.0	0.0	3	0.0	0.0	0.0
	2	0.0	0.0	3	0.0	0.0	0.0
	2	0.0	0.0	3	0.0	0.0	0.0
	2	0.0	0.0	3	0.0	0.0	0.0
	2	0.0	0.0	3	0.0	0.0	0.0
	2	0.0	0.0	3	0.0	0.0	0.0
	2	0.0	0.0	3	0.0	0.0	0.0
	2	0.0	0.0	3	0.0	0.0	0.0
	2	0.0	0.0	3	0.0	0.0	0.0
	2	0.0	0.0	3	0.0	0.0	0.0
	2	0.0	0.0	3	0.0	0.0	0.0
	2	0.0	0.0	3	0.0	0.0	0.0
	2	0.0	0.0	3	0.0	0.0	0.0
	2	0.0	0.0	3	0.0	0.0	0.0
	2	0.0	0.0	3	0.0	0.0	0.0
	2	0.0	0.0	3	0.0	0.0	0.0
	2	0.0	0.0	3	0.0	0.0	0.0
	2	0.0	0.0	3	0.0	0.0	0.0
	2	0.0	0.0	3	0.0	0.0	0.0
	2	0.0	0.0	3	0.0	0.0	0.0
	2	0.0	0.0	3	0.0	0.0	0.0
	2	0.0	0.0	3	0.0	0.0	0.0
	2	0.0	0.0	3	0.0	0.0	0.0
	2	0.0	0.0	3	0.0	0.0	0.0
	2	0.0	0.0	3	0.001	13.233	838.72
	2	0.0	0.0	3	0.001	17.183	838.72
	2	0.0	0.0	3	0.0	0.0	0.0
	2	0.0	0.0	3	0.0	0.0	0.0
	2	0.0	0.0	3	0.0	0.0	0.0
	2	0.0	0.0	3	0.0	0.0	0.0
	2	0.0	0.0	3	0.0	0.0	0.0
	2	0.0	0.0	3	0.0	0.0	0.0
	2	0.0	0.0	3	0.0	0.0	0.0
	2	0.0	0.0	3	0.0	0.0	0.0
	2	0.0	0.0	3	0.0	0.0	0.0
	2	0.0	0.0	3	0.0	0.0	0.0
	2	0.0	0.0	3	0.0	0.0	0.0
	2	0.0	0.0	3	0.0	0.0	0.0
	2	0.0	0.0	3	0.0	0.0	0.0
	2	0.0	0.0	3	0.0	0.0	0.0
	2	0.0	0.0	3	0.0	0.0	0.0
	2	0.0	0.0	3	0.0	0.0	0.0
	2	0.0	0.0	3	0.0	0.0	0.0
	2	0.0	0.0	3	0.0	0.0	0.0
	2	0.0	0.0	3	0.0	0.0	0.0
	2	0.0	0.0	3	0.0	0.0	0.0
	2	0.0	0.0	3	0.0	0.0	0.0
	2	0.0	0.0	3	0.0	0.0	0.0
	2	0.0	0.0	3	0.0	0.0	0.0
	2	0.0	0.0	3	0.0	0.0	0.0
	2	0.0	0.0	3	0.0	0.0	0.0
	2	0.0	0.0	3	0.0	0.0	0.0
...